Required_Files/240_bus_test_system_Curr_Seq.Txt

SYMMETRICAL COMPONENT CURRENTS BY CIRCUIT ELEMENT (first 3 phases)

Element                       Term      I1         I2         %I2/I1    I0         %I0/I1   %Normal %Emergency

"LINE.L_1001_1002" ..........   1      3.7444       0.3407     9.10    0.066641     1.78      0.98     0.65
   -                            2      3.8791      0.34068     8.78    0.066804     1.72      0.00     0.00
"LINE.L_1002_1003" ..........   1     0.63971   0.00027972     0.04  0.00036661     0.06      0.16     0.11
   -                            2     0.64933   0.00026493     0.04   0.0003559     0.05      0.00     0.00
"LINE.L_1002_1004" ..........   1      3.2488      0.34088    10.49    0.067155     2.07      0.86     0.58
   -                            2      3.2492      0.34088    10.49    0.067155     2.07      0.00     0.00
"LINE.L_1004_1005" ..........   1      2.9355      0.34099    11.62    0.067303     2.29      0.79     0.52
   -                            2      2.9358      0.34099    11.61    0.067303     2.29      0.00     0.00
"LINE.L_1005_1006" ..........   1      2.7186      0.34106    12.55    0.067409     2.48      0.73     0.49
   -                            2      2.7193      0.34106    12.54     0.06741     2.48      0.00     0.00
"LINE.L_1006_1007" ..........   1     0.33083            0     0.00           0     0.00      0.08     0.06
   -                            2     0.33116            0     0.00           0     0.00      0.00     0.00
"LINE.L_1006_1008" ..........   1      2.3027     0.085409     3.71    0.067689     2.94      0.61     0.41
   -                            2       2.303     0.085409     3.71    0.067689     2.94      0.00     0.00
"LINE.L_1008_1009" ..........   1      1.6642     0.085272     5.12    0.067995     4.09      0.45     0.30
   -                            2      1.6649     0.085272     5.12    0.067995     4.08      0.00     0.00
"LINE.L_1009_1010" ..........   1     0.31615    0.0001267     0.04   0.0001751     0.06      0.08     0.05
   -                            2     0.31627   0.00012662     0.04  0.00017507     0.06      0.00     0.00
"LINE.L_1009_1011" ..........   1     0.59604     0.085059    14.27    0.068521    11.50      0.18     0.12
   -                            2     0.59756     0.085061    14.23    0.068523    11.47      0.00     0.00
"LINE.L_1011_1012" ..........   1     0.46318       0.2131    46.01     0.20031    43.25      0.18     0.12
   -                            2     0.46459       0.2131    45.87     0.20031    43.11      0.00     0.00
"LINE.L_1012_1013" ..........   1     0.33188      0.21681    65.33     0.19037    57.36      0.18     0.12
   -                            2     0.33919      0.21681    63.92     0.19038    56.13      0.00     0.00
"LINE.L_1013_1014" ..........   1       0.154            0     0.00           0     0.00      0.04     0.03
   -                            2     0.15661            0     0.00           0     0.00      0.00     0.00
"LINE.L_1014_1015" ..........   1    0.097709            0     0.00           0     0.00      0.02     0.02
   -                            2      0.0996            0     0.00           0     0.00      0.00     0.00
"LINE.L_1013_1016" ..........   1     0.67116            0     0.00           0     0.00      0.17     0.11
   -                            2     0.68976            0     0.00           0     0.00      0.00     0.00
"LINE.L_1016_1017" ..........   1     0.27106            0     0.00           0     0.00      0.07     0.05
   -                            2     0.27334            0     0.00           0     0.00      0.00     0.00
"LINE.L_2001_2002" ..........   1      14.183      0.62662     4.42      0.8619     6.08      3.91     2.61
   -                            2      14.215      0.62672     4.41     0.86195     6.06      0.00     0.00
"LINE.L_2002_2003" ..........   1       13.02      0.62711     4.82     0.86166     6.62      3.62     2.41
   -                            2       13.02      0.62711     4.82     0.86166     6.62      0.00     0.00
"LINE.L_2003_2004" ..........   1      12.418      0.62729     5.05     0.86154     6.94      3.47     2.31
   -                            2      12.418      0.62729     5.05     0.86154     6.94      0.00     0.00
"LINE.L_2004_2005" ..........   1      12.418      0.62729     5.05     0.86154     6.94      3.47     2.31
   -                            2      12.418       0.6273     5.05     0.86154     6.94      0.00     0.00
"LINE.L_2005_2006" ..........   1      12.035       0.6274     5.21     0.86144     7.16      3.37     2.25
   -                            2      12.035       0.6274     5.21     0.86144     7.16      0.00     0.00
"LINE.L_2006_2007" ..........   1     0.43919            0     0.00           0     0.00      0.11     0.07
   -                            2     0.43934            0     0.00           0     0.00      0.00     0.00
"LINE.L_2007_2008" ..........   1     0.27428            0     0.00           0     0.00      0.07     0.05
   -                            2      0.2802            0     0.00           0     0.00      0.00     0.00
"LINE.L_2007_2009" ..........   1     0.16505            0     0.00           0     0.00      0.04     0.03
   -                            2     0.16515            0     0.00           0     0.00      0.00     0.00
"LINE.L_2006_2010" ..........   1      11.893      0.71129     5.98     0.91977     7.73      3.37     2.25
   -                            2      11.893      0.71129     5.98     0.91977     7.73      0.00     0.00
"LINE.L_2010_2011" ..........   1      11.796      0.71131     6.03     0.91975     7.80      3.35     2.23
   -                            2      11.796      0.71131     6.03     0.91975     7.80      0.00     0.00
"LINE.L_2011_2012" ..........   1      11.569      0.71137     6.15     0.91971     7.95      3.29     2.20
   -                            2      11.569      0.71137     6.15     0.91971     7.95      0.00     0.00
"LINE.L_2013_2014" ..........   1     0.58526      0.60655   103.64     0.60658   103.64      0.45     0.30
   -                            2     0.58538      0.60656   103.62     0.60658   103.62      0.00     0.00
"LINE.L_2014_2015" ..........   1      0.1944            0     0.00           0     0.00      0.05     0.03
   -                            2     0.19963            0     0.00           0     0.00      0.00     0.00
"LINE.L_2014_2016" ..........   1     0.40094      0.42154   105.14     0.42156   105.15      0.31     0.21
   -                            2     0.40103      0.42154   105.11     0.42156   105.12      0.00     0.00
"LINE.L_2016_2017" ..........   1     0.33229      0.35389   106.50     0.35391   106.51      0.26     0.17
   -                            2     0.33681       0.3539   105.07     0.35391   105.08      0.00     0.00
"LINE.L_2017_2018" ..........   1      0.1172       0.1203   102.64     0.12032   102.66      0.09     0.06
   -                            2     0.12032      0.12032   100.00     0.12032   100.00      0.00     0.00
"LINE.L_2013_2019" ..........   1      10.988      0.14027     1.28     0.31318     2.85      2.85     1.90
   -                            2      10.988      0.14027     1.28     0.31318     2.85      0.00     0.00
"LINE.L_2019_2020" ..........   1     0.38364            0     0.00           0     0.00      0.10     0.06
   -                            2     0.40083            0     0.00           0     0.00      0.00     0.00
"LINE.L_2019_2021" ..........   1       10.86     0.077771     0.72     0.18944     1.74      2.76     1.84
   -                            2       10.86     0.077771     0.72     0.18944     1.74      0.00     0.00
"LINE.L_2021_2022" ..........   1      1.0948            0     0.00           0     0.00      0.27     0.18
   -                            2         1.1            0     0.00           0     0.00      0.00     0.00
"LINE.L_2022_2023" ..........   1       0.742            0     0.00           0     0.00      0.19     0.12
   -                            2     0.74438            0     0.00           0     0.00      0.00     0.00
"LINE.L_2023_2024" ..........   1     0.65304            0     0.00           0     0.00      0.16     0.11
   -                            2      0.6615            0     0.00           0     0.00      0.00     0.00
"LINE.L_2024_2025" ..........   1     0.34547            0     0.00           0     0.00      0.09     0.06
   -                            2      0.3582            0     0.00           0     0.00      0.00     0.00
"LINE.L_2026_2027" ..........   1      10.497      0.29191     2.78     0.45351     4.32      2.76     1.84
   -                            2      10.497      0.29191     2.78     0.45351     4.32      0.00     0.00
"LINE.L_2027_2028" ..........   1     0.75744      0.15014    19.82     0.15027    19.84      0.26     0.18
   -                            2     0.76507      0.15013    19.62     0.15027    19.64      0.00     0.00
"LINE.L_2028_2029" ..........   1     0.76507      0.15013    19.62     0.15027    19.64      0.27     0.18
   -                            2     0.76907      0.15012    19.52     0.15026    19.54      0.00     0.00
"LINE.L_2029_2030" ..........   1     0.37468      0.15006    40.05      0.1501    40.06      0.17     0.11
   -                            2     0.38165      0.15005    39.32     0.15009    39.33      0.00     0.00
"LINE.L_2030_2031" ..........   1     0.13962      0.15002   107.45     0.15002   107.44      0.11     0.07
   -                            2     0.15001      0.15001   100.00     0.15001   100.00      0.00     0.00
"LINE.L_2027_2032" ..........   1      9.7449      0.30235     3.10     0.42396     4.35      2.60     1.74
   -                            2      9.7449      0.30235     3.10     0.42396     4.35      0.00     0.00
"LINE.L_2032_2033" ..........   1      9.6507      0.30237     3.13     0.42392     4.39      2.58     1.72
   -                            2      9.6508      0.30237     3.13     0.42392     4.39      0.00     0.00
"LINE.L_2033_2034" ..........   1     0.16539   3.5356E-005     0.02  8.5578E-005     0.05      0.04     0.03
   -                            2     0.16555   3.5232E-005     0.02  8.5554E-005     0.05      0.00     0.00
"LINE.L_2033_2035" ..........   1      9.4968       0.3024     3.18     0.42385     4.46      2.54     1.69
   -                            2      9.4968       0.3024     3.18     0.42385     4.46      0.00     0.00
"LINE.L_2035_2036" ..........   1      9.3315      0.30244     3.24     0.42379     4.54      2.50     1.67
   -                            2      9.3315      0.30244     3.24     0.42379     4.54      0.00     0.00
"LINE.L_2036_2037" ..........   1      9.3315      0.30244     3.24     0.42379     4.54      2.50     1.67
   -                            2      9.3315      0.30244     3.24     0.42379     4.54      0.00     0.00
"LINE.L_2037_2038" ..........   1      9.1663      0.30247     3.30     0.42372     4.62      2.46     1.64
   -                            2      9.1663      0.30247     3.30     0.42372     4.62      0.00     0.00
"LINE.L_2038_2039" ..........   1      9.5417      0.30302     3.18     0.42366     4.44      2.55     1.70
   -                            2      9.5421      0.30302     3.18     0.42366     4.44      0.00     0.00
"LINE.L_2039_2040" ..........   1      3.6049   0.00075592     0.02   0.0018807     0.05      0.90     0.60
   -                            2      3.6051   0.00075566     0.02   0.0018807     0.05      0.00     0.00
"LINE.L_2040_2041" ..........   1    0.080328   1.6773E-005     0.02  4.1615E-005     0.05      0.02     0.01
   -                            2    0.080475   1.6427E-005     0.02  4.155E-005     0.05      0.00     0.00
"LINE.L_2039_2042" ..........   1      5.9372      0.30368     5.11     0.42232     7.11      1.65     1.10
   -                            2      5.9384      0.30368     5.11     0.42232     7.11      0.00     0.00
"LINE.L_2042_2043" ..........   1      5.7482      0.30372     5.28     0.42224     7.35      1.61     1.07
   -                            2      5.7535      0.30373     5.28     0.42224     7.34      0.00     0.00
"LINE.L_2043_2044" ..........   1      5.4776      0.30377     5.55     0.42214     7.71      1.54     1.03
   -                            2      5.4894      0.30378     5.53     0.42214     7.69      0.00     0.00
"LINE.L_2044_2045" ..........   1      2.3271            0     0.00           0     0.00      0.58     0.39
   -                            2      2.3385            0     0.00           0     0.00      0.00     0.00
"LINE.L_2045_2046" ..........   1     0.87361            0     0.00           0     0.00      0.22     0.15
   -                            2     0.88849            0     0.00           0     0.00      0.00     0.00
"LINE.L_2045_2047" ..........   1      1.1903            0     0.00           0     0.00      0.30     0.20
   -                            2      1.1968            0     0.00           0     0.00      0.00     0.00
"LINE.L_2047_2048" ..........   1     0.49799            0     0.00           0     0.00      0.12     0.08
   -                            2     0.51015            0     0.00           0     0.00      0.00     0.00
"LINE.L_2044_2049" ..........   1      2.3394      0.56542    24.17     0.56432    24.12      0.87     0.58
   -                            2       2.345      0.56542    24.11     0.56432    24.06      0.00     0.00
"LINE.L_2049_2050" ..........   1      2.1904      0.41083    18.76     0.40972    18.71      0.75     0.50
   -                            2      2.1958      0.41083    18.71     0.40973    18.66      0.00     0.00
"LINE.L_2050_2051" ..........   1      2.0448      0.25859    12.65     0.25752    12.59      0.64     0.43
   -                            2      2.0513      0.25859    12.61     0.25753    12.55      0.00     0.00
"LINE.L_2051_2052" ..........   1      1.7929   0.00036186     0.02  0.00093582     0.05      0.45     0.30
   -                            2      1.7992   0.00035537     0.02  0.00093342     0.05      0.00     0.00
"LINE.L_2044_2053" ..........   1       2.385      0.64342    26.98     0.64394    27.00      0.90     0.60
   -                            2      2.3982      0.64339    26.83     0.64393    26.85      0.00     0.00
"LINE.L_2053_2054" ..........   1     0.69939      0.72048   103.02     0.72047   103.01      0.53     0.36
   -                            2     0.70481      0.72048   102.22     0.72046   102.22      0.00     0.00
"LINE.L_2054_2055" ..........   1     0.38078       0.3935   103.34     0.39349   103.34      0.29     0.19
   -                            2     0.38574      0.39349   102.01     0.39348   102.01      0.00     0.00
"LINE.L_2055_2056" ..........   1     0.20324      0.21169   104.16     0.21169   104.16      0.16     0.10
   -                            2     0.21168      0.21168   100.00     0.21168   100.00      0.00     0.00
"LINE.L_2053_2057" ..........   1      1.5125      0.20391    13.48     0.20452    13.52      0.48     0.32
   -                            2       1.533      0.20394    13.30     0.20452    13.34      0.00     0.00
"LINE.L_2057_2058" ..........   1      1.3636   0.00029262     0.02   0.0007394     0.05      0.34     0.23
   -                            2      1.3797    0.0002692     0.02  0.00073096     0.05      0.00     0.00
"LINE.L_2057_2059" ..........   1     0.19263      0.20422   106.02     0.20426   106.04      0.14     0.10
   -                            2     0.19308      0.20425   105.79     0.20426   105.79      0.00     0.00
"LINE.L_2059_2060" ..........   1    0.080653     0.084209   104.41    0.084224   104.43      0.06     0.04
   -                            2    0.084224     0.084224   100.00    0.084224   100.00      0.00     0.00
"LINE.L_3001_3003" ..........   1      31.377        2.849     9.08      3.2696    10.42      9.16     6.11
   -                            2      31.455       2.8488     9.06      3.2694    10.39      0.00     0.00
"LINE.L_3003_3002" ..........   1     0.86606   0.00060962     0.07   0.0005325     0.06      0.22     0.14
   -                            2     0.86954    0.0006042     0.07  0.00052626     0.06      0.00     0.00
"LINE.L_3003_3004" ..........   1      0.1385   0.00010261     0.07  9.0709E-005     0.07      0.03     0.02
   -                            2     0.14248   9.7717E-005     0.07  8.5069E-005     0.06      0.00     0.00
"LINE.L_3003_3005" ..........   1       30.46       2.8482     9.35      3.2692    10.73      8.93     5.95
   -                            2       30.53        2.848     9.33       3.269    10.71      0.00     0.00
"LINE.L_3005_3006" ..........   1     0.61396   0.00059473     0.10  0.00040968     0.07      0.15     0.10
   -                            2     0.61422   0.00059435     0.10  0.00040942     0.07      0.00     0.00
"LINE.L_3006_3007" ..........   1     0.43164   0.00041808     0.10  0.00028804     0.07      0.11     0.07
   -                            2     0.43196   0.00041763     0.10  0.00028773     0.07      0.00     0.00
"LINE.L_3005_3008" ..........   1      29.932       2.8475     9.51      3.2689    10.92      8.80     5.87
   -                            2      29.932       2.8475     9.51      3.2689    10.92      0.00     0.00
"LINE.L_3008_3009" ..........   1      2.6571            0     0.00           0     0.00      0.66     0.44
   -                            2      2.6572            0     0.00           0     0.00      0.00     0.00
"LINE.L_3009_3010" ..........   1      2.1171            0     0.00           0     0.00      0.53     0.35
   -                            2      2.1173            0     0.00           0     0.00      0.00     0.00
"LINE.L_3010_3011" ..........   1      1.4614            0     0.00           0     0.00      0.37     0.24
   -                            2      1.4615            0     0.00           0     0.00      0.00     0.00
"LINE.L_3011_3012" ..........   1     0.49453            0     0.00           0     0.00      0.12     0.08
   -                            2      0.4947            0     0.00           0     0.00      0.00     0.00
"LINE.L_3008_3013" ..........   1     0.74103            0     0.00           0     0.00      0.19     0.12
   -                            2     0.74112            0     0.00           0     0.00      0.00     0.00
"LINE.L_3013_3014" ..........   1     0.41608            0     0.00           0     0.00      0.10     0.07
   -                            2     0.41627            0     0.00           0     0.00      0.00     0.00
"LINE.L_3008_3015" ..........   1       28.81       2.3224     8.06      2.8322     9.83      8.14     5.43
   -                            2      28.811       2.3224     8.06      2.8322     9.83      0.00     0.00
"LINE.L_3015_3016" ..........   1      1.9417            0     0.00           0     0.00      0.49     0.32
   -                            2      1.9418            0     0.00           0     0.00      0.00     0.00
"LINE.L_3016_3017" ..........   1      1.0911            0     0.00           0     0.00      0.27     0.18
   -                            2      1.0912            0     0.00           0     0.00      0.00     0.00
"LINE.L_3015_3018" ..........   1      3.2649            0     0.00           0     0.00      0.82     0.54
   -                            2       3.265            0     0.00           0     0.00      0.00     0.00
"LINE.L_3018_3019" ..........   1      2.5622            0     0.00           0     0.00      0.64     0.43
   -                            2      2.5623            0     0.00           0     0.00      0.00     0.00
"LINE.L_3019_3020" ..........   1      1.8626            0     0.00           0     0.00      0.47     0.31
   -                            2      1.8628            0     0.00           0     0.00      0.00     0.00
"LINE.L_3020_3021" ..........   1      1.0511            0     0.00           0     0.00      0.26     0.18
   -                            2      1.0513            0     0.00           0     0.00      0.00     0.00
"LINE.L_3015_3022" ..........   1      27.102       2.9101    10.74      3.2284    11.91      8.14     5.43
   -                            2      27.102       2.9101    10.74      3.2284    11.91      0.00     0.00
"LINE.L_3022_3023" ..........   1      2.0451            0     0.00           0     0.00      0.51     0.34
   -                            2      2.0452            0     0.00           0     0.00      0.00     0.00
"LINE.L_3023_3024" ..........   1      1.5096            0     0.00           0     0.00      0.38     0.25
   -                            2      1.5097            0     0.00           0     0.00      0.00     0.00
"LINE.L_3024_3025" ..........   1     0.84337            0     0.00           0     0.00      0.21     0.14
   -                            2     0.84352            0     0.00           0     0.00      0.00     0.00
"LINE.L_3022_3026" ..........   1      4.0211            0     0.00           0     0.00      1.01     0.67
   -                            2      4.0212            0     0.00           0     0.00      0.00     0.00
"LINE.L_3026_3027" ..........   1       2.734            0     0.00           0     0.00      0.68     0.46
   -                            2      2.7342            0     0.00           0     0.00      0.00     0.00
"LINE.L_3027_3028" ..........   1      1.8557            0     0.00           0     0.00      0.46     0.31
   -                            2      1.8559            0     0.00           0     0.00      0.00     0.00
"LINE.L_3028_3029" ..........   1     0.34233            0     0.00           0     0.00      0.09     0.06
   -                            2     0.34256            0     0.00           0     0.00      0.00     0.00
"LINE.L_3022_3030" ..........   1      25.093       1.3877     5.53       1.748     6.97      6.69     4.46
   -                            2      25.093       1.3877     5.53       1.748     6.97      0.00     0.00
"LINE.L_3030_3035" ..........   1      3.5893       2.0459    57.00      2.0476    57.05      1.92     1.28
   -                            2      3.5894       2.0459    57.00      2.0476    57.05      0.00     0.00
"LINE.L_3035_3036" ..........   1      3.1149       2.0464    65.70      2.0476    65.74      1.80     1.20
   -                            2      3.1151       2.0464    65.70      2.0476    65.73      0.00     0.00
"LINE.L_3036_3037" ..........   1      2.9422       2.0466    69.56      2.0476    69.59      1.76     1.17
   -                            2      2.9423       2.0466    69.56      2.0476    69.59      0.00     0.00
"LINE.L_3037_3038" ..........   1      2.6195        2.047    78.14      2.0476    78.17      1.68     1.12
   -                            2      2.6197        2.047    78.14      2.0476    78.16      0.00     0.00
"LINE.L_3038_3039" ..........   1      2.3562       2.0472    86.89      2.0476    86.90      1.61     1.08
   -                            2      2.3563       2.0472    86.88      2.0476    86.90      0.00     0.00
"LINE.L_3039_3053" ..........   1      2.1479       2.0475    95.32      2.0476    95.33      1.56     1.04
   -                            2       2.148       2.0475    95.32      2.0476    95.32      0.00     0.00
"LINE.L_3053_3054" ..........   1     0.10219   0.00013317     0.13  0.00010709     0.10      0.03     0.02
   -                            2      0.1106   0.00011142     0.10  7.4217E-005     0.07      0.00     0.00
"LINE.L_3053_3055" ..........   1      6.1428            0     0.00           0     0.00      1.54     1.02
   -                            2      6.1899            0     0.00           0     0.00      0.00     0.00
"LINE.L_3055_3056" ..........   1      2.6374            0     0.00           0     0.00      0.66     0.44
   -                            2      2.6424            0     0.00           0     0.00      0.00     0.00
"LINE.L_3056_3057" ..........   1      2.1439            0     0.00           0     0.00      0.54     0.36
   -                            2      2.1509            0     0.00           0     0.00      0.00     0.00
"LINE.L_3057_3058" ..........   1      1.6503            0     0.00           0     0.00      0.41     0.28
   -                            2      1.6569            0     0.00           0     0.00      0.00     0.00
"LINE.L_3058_3059" ..........   1      1.2053            0     0.00           0     0.00      0.30     0.20
   -                            2       1.216            0     0.00           0     0.00      0.00     0.00
"LINE.L_3059_3060" ..........   1     0.62759            0     0.00           0     0.00      0.16     0.10
   -                            2     0.63006            0     0.00           0     0.00      0.00     0.00
"LINE.L_3060_3061" ..........   1     0.16002            0     0.00           0     0.00      0.04     0.03
   -                            2     0.16481            0     0.00           0     0.00      0.00     0.00
"LINE.L_3055_3062" ..........   1      3.5533            0     0.00           0     0.00      0.89     0.59
   -                            2      3.5693            0     0.00           0     0.00      0.00     0.00
"LINE.L_3062_3063" ..........   1      3.4443            0     0.00           0     0.00      0.86     0.57
   -                            2      3.4516            0     0.00           0     0.00      0.00     0.00
"LINE.L_3063_3064" ..........   1      2.5944            0     0.00           0     0.00      0.65     0.43
   -                            2      2.6001            0     0.00           0     0.00      0.00     0.00
"LINE.L_3064_3065" ..........   1      1.5966            0     0.00           0     0.00      0.40     0.27
   -                            2      1.6045            0     0.00           0     0.00      0.00     0.00
"LINE.L_3065_3066" ..........   1      1.2352            0     0.00           0     0.00      0.31     0.21
   -                            2      1.2401            0     0.00           0     0.00      0.00     0.00
"LINE.L_3066_3067" ..........   1     0.79748            0     0.00           0     0.00      0.20     0.13
   -                            2     0.80724            0     0.00           0     0.00      0.00     0.00
"LINE.L_3030_3040" ..........   1       2.345       1.2049    51.38      1.2034    51.32      1.19     0.79
   -                            2      2.3452       1.2049    51.38      1.2034    51.31      0.00     0.00
"LINE.L_3040_3044" ..........   1      1.1142            0     0.00           0     0.00      0.28     0.19
   -                            2      1.1142            0     0.00           0     0.00      0.00     0.00
"LINE.L_3044_3045" ..........   1     0.56454            0     0.00           0     0.00      0.14     0.09
   -                            2     0.56469            0     0.00           0     0.00      0.00     0.00
"LINE.L_3040_3041" ..........   1      2.5035            0     0.00           0     0.00      0.63     0.42
   -                            2      2.5035            0     0.00           0     0.00      0.00     0.00
"LINE.L_3041_3042" ..........   1      1.8356            0     0.00           0     0.00      0.46     0.31
   -                            2      1.8357            0     0.00           0     0.00      0.00     0.00
"LINE.L_3042_3043" ..........   1      0.8739            0     0.00           0     0.00      0.22     0.15
   -                            2     0.87406            0     0.00           0     0.00      0.00     0.00
"LINE.L_3040_3046" ..........   1      1.1456    0.0012458     0.11  0.00081518     0.07      0.29     0.19
   -                            2      1.1458    0.0012454     0.11  0.00081487     0.07      0.00     0.00
"LINE.L_3046_3047" ..........   1     0.44957   0.00048952     0.11  0.00032052     0.07      0.11     0.08
   -                            2     0.44972   0.00048923     0.11  0.00032031     0.07      0.00     0.00
"LINE.L_3046_3048" ..........   1     0.69638   0.00075606     0.11  0.00049448     0.07      0.17     0.12
   -                            2     0.69647   0.00075589     0.11  0.00049436     0.07      0.00     0.00
"LINE.L_3048_3049" ..........   1     0.58121   0.00063132     0.11  0.00041287     0.07      0.15     0.10
   -                            2     0.58139   0.00063103     0.11  0.00041266     0.07      0.00     0.00
"LINE.L_3049_3050" ..........   1     0.50668   0.00055034     0.11  0.00035992     0.07      0.13     0.08
   -                            2     0.50681   0.00055012     0.11  0.00035976     0.07      0.00     0.00
"LINE.L_3050_3051" ..........   1     0.38844   0.00042218     0.11  0.00027612     0.07      0.10     0.06
   -                            2     0.38875   0.00042172     0.11  0.00027579     0.07      0.00     0.00
"LINE.L_3051_3052" ..........   1     0.27963   0.00030379     0.11   0.0001987     0.07      0.07     0.05
   -                            2     0.27988   0.00030342     0.11  0.00019843     0.07      0.00     0.00
"LINE.L_3030_3031" ..........   1      19.203       2.9207    15.21      3.3967    17.69      5.97     3.98
   -                            2      19.203       2.9207    15.21      3.3967    17.69      0.00     0.00
"LINE.L_3031_3032" ..........   1      19.024       2.9206    15.35      3.3967    17.85      5.92     3.95
   -                            2      19.024       2.9206    15.35      3.3967    17.85      0.00     0.00
"LINE.L_3032_3033" ..........   1      18.774       2.9203    15.56      3.3966    18.09      5.86     3.91
   -                            2      18.774       2.9203    15.55      3.3966    18.09      0.00     0.00
"LINE.L_3033_3034" ..........   1      18.352       2.9198    15.91      3.3965    18.51      5.76     3.84
   -                            2      18.352       2.9198    15.91      3.3965    18.51      0.00     0.00
"LINE.L_3034_3068" ..........   1      18.153       2.9195    16.08      3.3965    18.71      5.71     3.80
   -                            2      18.153       2.9195    16.08      3.3965    18.71      0.00     0.00
"LINE.L_3068_3069" ..........   1     0.51542   0.00071487     0.14  0.00046298     0.09      0.13     0.09
   -                            2      0.5156    0.0007144     0.14  0.00046261     0.09      0.00     0.00
"LINE.L_3069_3070" ..........   1     0.20472   0.00030229     0.15  0.00021511     0.11      0.05     0.03
   -                            2     0.20544   0.00029246     0.14  0.00019873     0.10      0.00     0.00
"LINE.L_3070_3071" ..........   1     0.17039   0.00024718     0.15  0.00017141     0.10      0.04     0.03
   -                            2     0.17253   0.00023428     0.14  0.00014993     0.09      0.00     0.00
"LINE.L_3071_3072" ..........   1    0.080844     0.000114     0.14  7.7559E-005     0.10      0.02     0.01
   -                            2    0.081664   0.00010564     0.13  6.369E-005     0.08      0.00     0.00
"LINE.L_3069_3073" ..........   1     0.32088   0.00041667     0.13  0.00025128     0.08      0.08     0.05
   -                            2     0.32089   0.00041664     0.13  0.00025126     0.08      0.00     0.00
"LINE.L_3073_3074" ..........   1     0.21694   0.00028212     0.13  0.00017019     0.08      0.05     0.04
   -                            2     0.21721   0.00028165     0.13  0.00016981     0.08      0.00     0.00
"LINE.L_3068_3075" ..........   1      17.642       2.9189    16.54      3.3963    19.25      5.58     3.72
   -                            2      17.642       2.9189    16.54      3.3963    19.25      0.00     0.00
"LINE.L_3076_3077" ..........   1      2.0011    0.0026626     0.13   0.0015952     0.08      0.50     0.33
   -                            2      2.0017    0.0026613     0.13   0.0015942     0.08      0.00     0.00
"LINE.L_3077_3078" ..........   1     0.18174   0.00024126     0.13  0.00014403     0.08      0.05     0.03
   -                            2     0.18181   0.00024115     0.13  0.00014394     0.08      0.00     0.00
"LINE.L_3076_3079" ..........   1      15.708       2.9165    18.57      3.3958    21.62      5.09     3.39
   -                            2      15.708       2.9165    18.57      3.3958    21.62      0.00     0.00
"LINE.L_3079_3080" ..........   1      16.081       2.9149    18.13       3.394    21.11      5.19     3.46
   -                            2      16.081       2.9149    18.13       3.394    21.11      0.00     0.00
"LINE.L_3080_3081" ..........   1    0.067006   9.7887E-005     0.15  5.6244E-005     0.08      0.02     0.01
   -                            2    0.067098   9.7578E-005     0.15  5.5991E-005     0.08      0.00     0.00
"LINE.L_3080_3082" ..........   1      16.014       2.9148    18.20       3.394    21.19      5.17     3.45
   -                            2      16.014       2.9148    18.20       3.394    21.19      0.00     0.00
"LINE.L_3082_3083" ..........   1      4.3222            0     0.00           0     0.00      1.08     0.72
   -                            2      4.3249            0     0.00           0     0.00      0.00     0.00
"LINE.L_3083_3084" ..........   1      3.8412            0     0.00           0     0.00      0.96     0.64
   -                            2      3.8457            0     0.00           0     0.00      0.00     0.00
"LINE.L_3084_3085" ..........   1      3.5571            0     0.00           0     0.00      0.89     0.59
   -                            2       3.569            0     0.00           0     0.00      0.00     0.00
"LINE.L_3085_3086" ..........   1      2.7059            0     0.00           0     0.00      0.68     0.45
   -                            2      2.7138            0     0.00           0     0.00      0.00     0.00
"LINE.L_3086_3087" ..........   1      2.4065            0     0.00           0     0.00      0.60     0.40
   -                            2      2.4118            0     0.00           0     0.00      0.00     0.00
"LINE.L_3087_3088" ..........   1      1.8757            0     0.00           0     0.00      0.47     0.31
   -                            2      1.8829            0     0.00           0     0.00      0.00     0.00
"LINE.L_3088_3089" ..........   1      0.8214            0     0.00           0     0.00      0.21     0.14
   -                            2     0.82281            0     0.00           0     0.00      0.00     0.00
"LINE.L_3089_3090" ..........   1     0.71634            0     0.00           0     0.00      0.18     0.12
   -                            2     0.72473            0     0.00           0     0.00      0.00     0.00
"LINE.L_3090_3091" ..........   1     0.32061            0     0.00           0     0.00      0.08     0.05
   -                            2     0.32709            0     0.00           0     0.00      0.00     0.00
"LINE.L_3082_3092" ..........   1      3.3179       1.0784    32.50      1.0545    31.78      1.26     0.84
   -                            2      3.3245       1.0784    32.44      1.0545    31.72      0.00     0.00
"LINE.L_3092_3093" ..........   1      3.5431            0     0.00           0     0.00      0.89     0.59
   -                            2      3.5517            0     0.00           0     0.00      0.00     0.00
"LINE.L_3093_3094" ..........   1      2.9756            0     0.00           0     0.00      0.74     0.50
   -                            2      2.9801            0     0.00           0     0.00      0.00     0.00
"LINE.L_3094_3095" ..........   1      2.5959            0     0.00           0     0.00      0.65     0.43
   -                            2      2.5984            0     0.00           0     0.00      0.00     0.00
"LINE.L_3095_3096" ..........   1      1.8207            0     0.00           0     0.00      0.46     0.30
   -                            2      1.8322            0     0.00           0     0.00      0.00     0.00
"LINE.L_3096_3097" ..........   1      1.4621            0     0.00           0     0.00      0.37     0.24
   -                            2      1.4669            0     0.00           0     0.00      0.00     0.00
"LINE.L_3092_3098" ..........   1      1.3857            0     0.00           0     0.00      0.35     0.23
   -                            2      1.3946            0     0.00           0     0.00      0.00     0.00
"LINE.L_3098_3099" ..........   1     0.54685            0     0.00           0     0.00      0.14     0.09
   -                            2     0.55142            0     0.00           0     0.00      0.00     0.00
"LINE.L_3092_3100" ..........   1      1.6823       1.6856   100.20      1.6856   100.20      1.26     0.84
   -                            2      1.6856       1.6856   100.00      1.6856   100.00      0.00     0.00
"LINE.L_3100_3101" ..........   1      2.2553            0     0.00           0     0.00      0.56     0.38
   -                            2      2.2613            0     0.00           0     0.00      0.00     0.00
"LINE.L_3101_3102" ..........   1      1.9364            0     0.00           0     0.00      0.48     0.32
   -                            2      1.9448            0     0.00           0     0.00      0.00     0.00
"LINE.L_3102_3103" ..........   1     0.88796            0     0.00           0     0.00      0.22     0.15
   -                            2     0.89378            0     0.00           0     0.00      0.00     0.00
"LINE.L_3100_3104" ..........   1      2.8017            0     0.00           0     0.00      0.70     0.47
   -                            2      2.8099            0     0.00           0     0.00      0.00     0.00
"LINE.L_3104_3105" ..........   1      1.6738            0     0.00           0     0.00      0.42     0.28
   -                            2      1.6784            0     0.00           0     0.00      0.00     0.00
"LINE.L_3105_3106" ..........   1      1.2974            0     0.00           0     0.00      0.32     0.22
   -                            2      1.3052            0     0.00           0     0.00      0.00     0.00
"LINE.L_3082_3107" ..........   1      11.263        1.223    10.86      1.4327    12.72      3.21     2.14
   -                            2      11.321       1.2228    10.80      1.4325    12.65      0.00     0.00
"LINE.L_3107_3108" ..........   1      5.7211            0     0.00           0     0.00      1.43     0.95
   -                            2      5.7356            0     0.00           0     0.00      0.00     0.00
"LINE.L_3108_3109" ..........   1      5.4553            0     0.00           0     0.00      1.36     0.91
   -                            2      5.4596            0     0.00           0     0.00      0.00     0.00
"LINE.L_3109_3110" ..........   1      3.6001            0     0.00           0     0.00      0.90     0.60
   -                            2      3.6033            0     0.00           0     0.00      0.00     0.00
"LINE.L_3110_3111" ..........   1      2.4051            0     0.00           0     0.00      0.60     0.40
   -                            2      2.4115            0     0.00           0     0.00      0.00     0.00
"LINE.L_3111_3112" ..........   1      1.1641            0     0.00           0     0.00      0.29     0.19
   -                            2      1.1691            0     0.00           0     0.00      0.00     0.00
"LINE.L_3107_3113" ..........   1      3.0573            0     0.00           0     0.00      0.76     0.51
   -                            2      3.0648            0     0.00           0     0.00      0.00     0.00
"LINE.L_3113_3114" ..........   1      1.6422            0     0.00           0     0.00      0.41     0.27
   -                            2      1.6464            0     0.00           0     0.00      0.00     0.00
"LINE.L_3114_3115" ..........   1     0.96711            0     0.00           0     0.00      0.24     0.16
   -                            2     0.97203            0     0.00           0     0.00      0.00     0.00
"LINE.L_3113_3116" ..........   1      1.4245            0     0.00           0     0.00      0.36     0.24
   -                            2      1.4416            0     0.00           0     0.00      0.00     0.00
"LINE.L_3116_3117" ..........   1     0.50014            0     0.00           0     0.00      0.13     0.08
   -                            2     0.50589            0     0.00           0     0.00      0.00     0.00
"LINE.L_3107_3118" ..........   1      4.2467       2.1861    51.48      2.2434    52.83      1.80     1.20
   -                            2      4.3376       2.1861    50.40      2.2429    51.71      0.00     0.00
"LINE.L_3118_3119" ..........   1      5.7315            0     0.00           0     0.00      1.43     0.96
   -                            2      5.7471            0     0.00           0     0.00      0.00     0.00
"LINE.L_3119_3120" ..........   1      1.3003            0     0.00           0     0.00      0.33     0.22
   -                            2      1.3105            0     0.00           0     0.00      0.00     0.00
"LINE.L_3120_3121" ..........   1     0.91446            0     0.00           0     0.00      0.23     0.15
   -                            2     0.92235            0     0.00           0     0.00      0.00     0.00
"LINE.L_3121_3122" ..........   1     0.56281            0     0.00           0     0.00      0.14     0.09
   -                            2     0.57134            0     0.00           0     0.00      0.00     0.00
"LINE.L_3119_3123" ..........   1      4.4498            0     0.00           0     0.00      1.11     0.74
   -                            2      4.4531            0     0.00           0     0.00      0.00     0.00
"LINE.L_3123_3124" ..........   1      3.7645            0     0.00           0     0.00      0.94     0.63
   -                            2      3.7668            0     0.00           0     0.00      0.00     0.00
"LINE.L_3124_3125" ..........   1      3.3266            0     0.00           0     0.00      0.83     0.55
   -                            2      3.3313            0     0.00           0     0.00      0.00     0.00
"LINE.L_3125_3126" ..........   1      3.2289            0     0.00           0     0.00      0.81     0.54
   -                            2      3.2398            0     0.00           0     0.00      0.00     0.00
"LINE.L_3126_3127" ..........   1      2.4098            0     0.00           0     0.00      0.60     0.40
   -                            2      2.4163            0     0.00           0     0.00      0.00     0.00
"LINE.L_3127_3128" ..........   1      1.6412            0     0.00           0     0.00      0.41     0.27
   -                            2      1.6487            0     0.00           0     0.00      0.00     0.00
"LINE.L_3128_3129" ..........   1      1.1701            0     0.00           0     0.00      0.29     0.20
   -                            2      1.1777            0     0.00           0     0.00      0.00     0.00
"LINE.L_3129_3130" ..........   1     0.92256            0     0.00           0     0.00      0.23     0.15
   -                            2      0.9302            0     0.00           0     0.00      0.00     0.00
"LINE.L_3130_3131" ..........   1     0.47337            0     0.00           0     0.00      0.12     0.08
   -                            2      0.4826            0     0.00           0     0.00      0.00     0.00
"LINE.L_3118_3132" ..........   1      7.2817            0     0.00           0     0.00      1.82     1.21
   -                            2      7.2992            0     0.00           0     0.00      0.00     0.00
"LINE.L_3132_3133" ..........   1      5.7499            0     0.00           0     0.00      1.44     0.96
   -                            2      5.7546            0     0.00           0     0.00      0.00     0.00
"LINE.L_3133_3134" ..........   1      2.9061            0     0.00           0     0.00      0.73     0.48
   -                            2      2.9162            0     0.00           0     0.00      0.00     0.00
"LINE.L_3134_3135" ..........   1      2.1853            0     0.00           0     0.00      0.55     0.36
   -                            2      2.1958            0     0.00           0     0.00      0.00     0.00
"LINE.L_3135_3136" ..........   1      1.2837            0     0.00           0     0.00      0.32     0.21
   -                            2      1.3024            0     0.00           0     0.00      0.00     0.00
"LINE.L_3133_3137" ..........   1      2.8504            0     0.00           0     0.00      0.71     0.48
   -                            2       2.858            0     0.00           0     0.00      0.00     0.00
"LINE.L_3137_3138" ..........   1      1.1212            0     0.00           0     0.00      0.28     0.19
   -                            2       1.136            0     0.00           0     0.00      0.00     0.00
"LINE.L_3138_3139" ..........   1    0.034674            0     0.00           0     0.00      0.01     0.01
   -                            2  9.5524E-006            0     0.00           0     0.00      0.00     0.00
"LINE.L_3107_3140" ..........   1      12.479            0     0.00           0     0.00      3.12     2.08
   -                            2      12.488            0     0.00           0     0.00      0.00     0.00
"LINE.L_3140_3141" ..........   1      2.1205            0     0.00           0     0.00      0.53     0.35
   -                            2      2.1243            0     0.00           0     0.00      0.00     0.00
"LINE.L_3141_3142" ..........   1      1.5047            0     0.00           0     0.00      0.38     0.25
   -                            2      1.5109            0     0.00           0     0.00      0.00     0.00
"LINE.L_3142_3143" ..........   1     0.99913            0     0.00           0     0.00      0.25     0.17
   -                            2      1.0065            0     0.00           0     0.00      0.00     0.00
"LINE.L_3140_3148" ..........   1      3.9761            0     0.00           0     0.00      0.99     0.66
   -                            2      3.9817            0     0.00           0     0.00      0.00     0.00
"LINE.L_3148_3149" ..........   1      2.6335            0     0.00           0     0.00      0.66     0.44
   -                            2      2.6416            0     0.00           0     0.00      0.00     0.00
"LINE.L_3149_3150" ..........   1      2.3714            0     0.00           0     0.00      0.59     0.40
   -                            2      2.3758            0     0.00           0     0.00      0.00     0.00
"LINE.L_3150_3151" ..........   1      2.0441            0     0.00           0     0.00      0.51     0.34
   -                            2      2.0492            0     0.00           0     0.00      0.00     0.00
"LINE.L_3151_3152" ..........   1      1.8299            0     0.00           0     0.00      0.46     0.30
   -                            2      1.8387            0     0.00           0     0.00      0.00     0.00
"LINE.L_3152_3153" ..........   1      1.5768            0     0.00           0     0.00      0.39     0.26
   -                            2      1.5813            0     0.00           0     0.00      0.00     0.00
"LINE.L_3153_3154" ..........   1     0.78466            0     0.00           0     0.00      0.20     0.13
   -                            2     0.78611            0     0.00           0     0.00      0.00     0.00
"LINE.L_3154_3155" ..........   1     0.18256            0     0.00           0     0.00      0.05     0.03
   -                            2     0.19222            0     0.00           0     0.00      0.00     0.00
"LINE.L_3140_3156" ..........   1      6.3976            0     0.00           0     0.00      1.60     1.07
   -                            2        6.41            0     0.00           0     0.00      0.00     0.00
"LINE.L_3156_3144" ..........   1      1.6442            0     0.00           0     0.00      0.41     0.27
   -                            2        1.65            0     0.00           0     0.00      0.00     0.00
"LINE.L_3144_3145" ..........   1      1.5846            0     0.00           0     0.00      0.40     0.26
   -                            2      1.5933            0     0.00           0     0.00      0.00     0.00
"LINE.L_3145_3146" ..........   1      1.3486            0     0.00           0     0.00      0.34     0.22
   -                            2      1.3575            0     0.00           0     0.00      0.00     0.00
"LINE.L_3146_3147" ..........   1       1.138            0     0.00           0     0.00      0.28     0.19
   -                            2      1.1473            0     0.00           0     0.00      0.00     0.00
"LINE.L_3156_3157" ..........   1       4.772            0     0.00           0     0.00      1.19     0.80
   -                            2      4.7776            0     0.00           0     0.00      0.00     0.00
"LINE.L_3157_3158" ..........   1      3.4739            0     0.00           0     0.00      0.87     0.58
   -                            2      3.4836            0     0.00           0     0.00      0.00     0.00
"LINE.L_3158_3159" ..........   1      2.6529            0     0.00           0     0.00      0.66     0.44
   -                            2      2.6619            0     0.00           0     0.00      0.00     0.00
"LINE.L_3159_3160" ..........   1      1.3514            0     0.00           0     0.00      0.34     0.23
   -                            2      1.3569            0     0.00           0     0.00      0.00     0.00
"LINE.L_3160_3161" ..........   1     0.80906            0     0.00           0     0.00      0.20     0.13
   -                            2     0.81289            0     0.00           0     0.00      0.00     0.00
"LINE.L_3161_3162" ..........   1        0.47            0     0.00           0     0.00      0.12     0.08
   -                            2      0.4738            0     0.00           0     0.00      0.00     0.00
"LINE.CB_101" ...............   1      3.7444       0.3407     9.10     0.06664     1.78      0.98     0.65
   -                            2      3.7444       0.3407     9.10     0.06664     1.78      0.00     0.00
"LINE.CB_102" ...............   1           0            0     0.00           0     0.00      0.00     0.00
   -                            2           0            0     0.00           0     0.00      0.00     0.00
"LINE.CB_201" ...............   1      14.183      0.62662     4.42      0.8619     6.08      3.91     2.61
   -                            2      14.183      0.62662     4.42      0.8619     6.08      0.00     0.00
"LINE.CB_202" ...............   1      11.569      0.71136     6.15     0.91971     7.95      3.29     2.20
   -                            2      11.569      0.71136     6.15     0.91971     7.95      0.00     0.00
"LINE.CB_203" ...............   1      10.497       0.2919     2.78     0.45351     4.32      2.76     1.84
   -                            2      10.497       0.2919     2.78     0.45351     4.32      0.00     0.00
"LINE.CB_204" ...............   1           0            0     0.00           0     0.00      0.00     0.00
   -                            2           0            0     0.00           0     0.00      0.00     0.00
"LINE.CB_301" ...............   1      31.377        2.849     9.08      3.2696    10.42      9.16     6.11
   -                            2      31.377        2.849     9.08      3.2696    10.42      0.00     0.00
"LINE.CB_302" ...............   1      17.642       2.9189    16.54      3.3963    19.25      5.58     3.72
   -                            2      17.642       2.9189    16.54      3.3963    19.25      0.00     0.00
"LINE.CB_303" ...............   1           0            0     0.00           0     0.00      0.00     0.00
   -                            2           0            0     0.00           0     0.00      0.00     0.00
